FoamFile
{
	version	2.0;
	class	dictionary;
	format	ascii; 
	location	"system";
	object	controlDict; 
}
application	buoyantBoussinesqSimpleFoam; 
startFrom	latestTime;
startTime	0;
stopAt	endTime;
endTime	30000;
deltaT	1.0;
writeControl	timeStep;
writeInterval	400.0;
purgeWrite	2;
timeFormat	general; 
timePrecision	6;
writeFormat	ascii;
writePrecision	7;
writeCompression	uncompressed; 
runTimeModifiable	true;
