FoamFile
{
	version	2.0;
	class	dictionary; 
	format	ascii;
	location	"system";
	object	fvSchemes;  
}
ddtSchemes 
{
	default	steadyState; 
}
gradSchemes
{
	default	Gauss linear;
	
}
divSchemes
{
	default	bounded Gauss upwind; 
	div(phi,U)	bounded  Gauss upwind; 
	div(phi,T)	bounded Gauss QUICK; //linear is also good is good
	div(phi,omega)	bounded Gauss QUICK;
	div(phi,epsilon)	bounded Gauss limitedLinear 1; 
	div(phi,k)	bounded Gauss linearUpwind grad; 
	div(phi,v2) bounded Gauss QUICK;
	div((nuEff*dev(T(grad(U)))))	Gauss linear;
	div((nuEff*dev2(T(grad(U)))))	Gauss linear;
	div(R)	Gauss linear;
}
laplacianSchemes
{
	default	Gauss linear corrected; //my mesh's non-orthogonality is zero.
}
interpolationSchemes
{
	default	linear;
}
snGradSchemes
{
	default	corrected;
}
fluxRequired
{
	default	no;
	p_rgh	;
}
wallDist
{
	method	meshWave;
	nRequired	true;
}
