FoamFile
{
	version             2.0;
	format              ascii;
	class               volScalarField;
	location            "0";
	object              epsilon;
}


dimensions	[0 2 -3 0 0 0 0]; 

internalField	uniform  22.46;

boundaryField
{
	OUT
	{
		type	inletOutlet;
		inletValue	uniform 1.0E-8;
	}
	CONFINED 
	{
		type	fixedValue;
		value	uniform 1.0E-8;
	}
	PLANE
	{
               
		type	epsilonWallFunction;
        value   $internalField; 
       // type    zeroGradient;
        		
	}
	WALL2
	{
	     
		type	epsilonWallFunction;
        value   $internalField; 
                
	}
	IN
	{
		type	fixedValue;
		value	$internalField;
	}
	FRONT
	{
		type	wedge;
	}
	BACK
	{
		type	wedge;
	}
	FRONT2
	{
		type	wedge;
	}
	BACK2
	{
		type	wedge;
	}
}
