FoamFile
{
	version             2.0;
	format              ascii;
	class               volScalarField;
	location            "0";
	object              omega;
}


dimensions	[0 0 -1 0 0 0 0]; 

internalField	uniform  50.40;

boundaryField
{
	OUT
	{
		type	inletOutlet;
		inletValue	uniform 1.0E-8;
	}
	CONFINED 
	{
		type	fixedValue;
		value	uniform 1.0E-8;
	}
	PLANE
	{
               
		type	omegaWallFunction;
        value   $internalField;        
	}
	WALL2
	{
	     
		type	omegaWallFunction;
        value   $internalField; 
                
	}
	IN
	{
		type	fixedValue;
		value	$internalField;
	}
	FRONT
	{
		type	wedge;
	}
	BACK
	{
		type	wedge;
	}
	FRONT2
	{
		type	wedge;
	}
	BACK2
	{
		type	wedge;
	}
}
