FoamFile
{
	version             2.0;
	format              ascii;
	class               volScalarField;
	location            "0";
	object              p_rgh;
}


dimensions	[0 2 -2 0 0 0 0]; 

internalField	uniform 0;

boundaryField
{
	OUT
	{
		type	fixedValue;
		value	uniform 0;
	}
	CONFINED
	{
		type	fixedValue; 
		value	uniform 0;
	}
	PLANE
	{
		type	fixedFluxPressure;
		rho	rhok;
	}
	WALL2
	{
		type	fixedFluxPressure;
		rho	rhok;
	}
	IN
	{
		type	fixedFluxPressure;
		rho	rhok;
	}
	FRONT
	{
		type	wedge;
	}
	BACK
	{
		type	wedge;
	}
	FRONT2
	{
		type	wedge;
	}
	BACK2
	{
		type	wedge;
	}
}
